Resultados_Ferramenta_Computacional_ds_ons_122023_rv0d29/ds_ons_122023_rv0d29_Estagio34.m
function mpc = ds_ons_122023_rv0d29_Estagio34
% CASO SIN: extraido dos arquivos de dados do DESSEM
%
% CASO SIN: Fluxo de Potencia do SIN extraido de arquivo de dados do DESSEM
% Autores Francisco Povoas e Murilo Reolon
%
%   MATPOWER
%
%% MATPOWER Case Format : Version 2
mpc.version = '2';
%
%%-----  Power Flow Data  -----%%

%% system MVA base
mpc.baseMVA = 100;

%% bus data
%	bus_i   type    Pd      Qd      Gs      Bs      area    Vm      Va      baseKV  zone    Vmax    Vmin
mpc.bus = [
   10      2       32.0    15.5    0       0       221     0.971   44.3    992     0       1.05    0.95;
   11      2       0       0       0       0       221     0.978   51.6    992     0       1.05    0.95;
   12      2       0       0       0       0       204     0.964   57.1    992     0       1.05    0.95;
   13      2       0       0       0       0       204     1.01    52.3    990     0       1.05    0.95;
   14      2       0       0       0       0       225     0.974   44.6    992     0       1.05    0.95;
   16      2       0       0       0       0       189     0.973   52.8    992     0       1.05    0.95;
   17      2       0       0       0       0       189     1.012   46.5    990     0       1.05    0.95;
   18      2       0       0       0       0       188     0.963   59.7    992     0       1.05    0.95;
   19      2       0       0       0       0       188     1.005   53      990     0       1.05    0.95;
   20      2       0       0       0       0       188     1.013   58      992     0       1.05    0.95;
   21      2       0       0       0       0       137     0.982   52.4    992     0       1.05    0.95;
   22      2       0       0       0       0       189     0.985   58.1    992     0       1.05    0.95;
   23      2       0       0       0       0       149     0.999   51.9    990     0       1.05    0.95;
   24      2       0       0       0       0       208     0.971   56.8    992     0       1.05    0.95;
   27      1       0       0       0       0       202     0.844   44.6    500     0       1.1     1;
   28      2       0       0       0       0       208     1.007   67.4    992     0       1.05    0.95;
   30      2       0       0       0       0       224     1.002   34.6    992     0       1.05    0.95;
   31      2       0       0       0       0       224     1.002   34.6    992     0       1.05    0.95;
   32      2       0       0       0       0       224     1.002   34.6    992     0       1.05    0.95;
   35      2       0       0       0       0       148     0.964   57.5    992     0       1.05    0.95;
   36      2       0       0       0       0       147     0.975   47      992     0       1.05    0.95;
   37      2       0       0       0       0       147     1.003   42.9    990     0       1.05    0.95;
   38      2       0       0       0       0       221     1.006   34.5    13.8    0       1.05    0.95;
   41      2       0       0       0       0       234     1.01    27.4    990     0       1.05    0.95;
   44      2       0       0       0       0       221     1.006   34.4    13.8    0       1.05    0.95;
   46      1       0       0       0       0       222     1.045   30.4    15      0       1.9     0.4;
   47      2       0       0       0       0       234     1.011   27.4    990     0       1.05    0.95;
   48      2       0       0       0       0       204     0.992   38.5    20      0       1.05    0.95;
   50      2       0       0       0       0       201     0.965   35.6    20      0       1.05    0.95;
   52      1       0       0       0       0       222     0.865   30.4    345     0       1.05    0.95;
   53      2       0       0       0       0       222     0.972   30.4    20      0       1.05    0.95;
   54      2       0       0       0       0       222     0.972   30.4    20      0       1.05    0.95;
   56      1       0       0       0       0       201     0.729   59.3    69      0       1.9     0.4;
   57      1       0       0       0       0       201     0.676   59.4    69      0       1.9     0.4;
   58      1       0       0       0       0       201     0.789   59.4    991     0       1.9     0.4;
   59      1       0       0       0       0       201     0.786   59.3    991     0       1.9     0.4;
   60      1       0       0       0       0       201     0.766   66.2    765     0       1.046   0.9;
   61      1       0       0       0       0       240     0.735   68.9    500     0       1.1     1;
   62      1       0       0       0       0       201     0.782   52.3    765     0       1.046   0.9;
   63      1       0       0       0       0       201     0.782   52.3    765     0       1.046   0.9;
   64      1       0       0       0       0       201     0.78    52.5    765     0       1.046   0.9;
   65      1       0       0       0       0       201     0.798   57.7    765     0       1.046   0.9;
   66      1       0       0       0       0       101     0.825   59.1    525     0       1.048   0.95;
   67      1       0.24    0.0     0       0       201     0.675   59.4    69      0       1.9     0.4;
   68      1       0       0       0       0       201     0.79    59.4    991     0       1.9     0.4;
   69      1       0       0       0       0       201     0.817   65.1    765     0       1.046   0.9;
   70      1       0       0       0       0       201     0.818   65.1    765     0       1.046   0.9;
   71      1       0       0       0       0       201     0.816   65      765     0       1.046   0.9;
   72      1       0       0       0       0       201     0.684   50.6    765     0       1.046   0.9;
   73      1       0       0       0       0       201     0.772   59.4    765     0       1.046   0.9;
   74      1       0       0       0       0       201     0.773   59.4    765     0       1.046   0.9;
   75      1       0       0       0       0       201     0.769   59      765     0       1.046   0.9;
   76      1       0       0       0       0       201     0.576   42.7    765     0       1.046   0.9;
   77      1       0       0       0       0       202     1.044   42.6    500     0       1.1     1;
   78      1       0       0       0       0       204     1.001   36.4    345     0       1.05    0.95;
   79      1       0       0       0       0       201     0.495   42.6    69      0       1.9     0.4;
   80      1       0       0       0       0       201     0.584   42.6    991     0       1.9     0.4;
   81      1       0       0       0       0       201     0.421   35.6    991     0       1.9     0.4;
   82      1       0       0       0       0       204     0.998   36.5    345     0       1.05    0.95;
   84      1       0       0       0       0       225     1.02    40.3    138     0       1.05    0.95;
   85      1       60.0    0.0     0       0       241     1.099   -0.1    500     0       1.1     1;
   86      2       0       0       0       0       204     1.03    38.5    345     0       1.05    0.95;
   87      1       0       0       0       0       221     0.783   43.2    500     0       1.1     1;
   90      1       0       0       0       0       234     0.825   28.5    345     0       1.05    0.95;
   91      1       0       0       0       0       234     0.826   26.4    13.8    0       1.9     0.4;
   92      1       0       0       0       0       147     0.546   46      500     0       1.1     1;
   93      1       0       0       0       0       147     0.545   45.7    500     0       1.1     1;
   94      1       0       0       0       0       147     0.549   45.8    500     0       1.1     1;
   95      1       0       0       0       0       234     0.826   26.3    13.8    0       1.9     0.4;
   96      1       0       0       0       0       234     0.826   26.3    13.8    0       1.9     0.4;
   99      1       0       0       0       0       202     0.887   51.8    500     0       1.1     1;
   100     1       0       0       0       0       188     1.141   52.2    500     0       1.1     1;
   101     1       0       0       0       0       202     0.983   50.6    500     0       1.1     1;
   102     1       0       0       0       0       188     0.828   46      500     0       1.1     1;
   103     1       0       0       0       0       202     0.831   44.1    500     0       1.1     1;
   104     1       0       0       0       0       202     0.818   41.6    500     0       1.1     1;
   105     1       0       0       0       0       221     0.846   44.7    500     0       1.1     1;
   106     1       0       0       0       0       221     0.937   40.6    500     0       1.1     1;
   107     1       0       0       0       0       221     0.942   38.4    500     0       1.1     1;
   108     1       0       0       0       0       221     0.804   39.5    500     0       1.1     1;
   109     1       0       0       0       0       221     0.937   40.6    500     0       1.1     1;
   110     1       0       0       0       0       221     0.983   34.4    991     0       1.9     0.4;
   112     1       0       0       0       0       101     0.805   51.9    500     0       1.1     1;
   113     1       0       0       0       0       101     0.805   51.9    500     0       1.1     1;
   114     1       0       0       0       0       101     0.805   51.9    500     0       1.1     1;
   115     1       0       0       0       0       101     0.757   59.4    500     0       1.1     1;
   116     1       0       0       0       0       226     0.736   31.6    138     0       1.05    0.95;
   118     1       0       0       0       0       148     0.953   41.9    991     0       1.9     0.4;
   119     1       0       0       0       0       148     0.953   41.9    13.8    0       1.9     0.4;
   120     1       0       0       0       0       189     1.006   41.6    345     0       1.05    0.95;
   121     1       0       0       0       0       188     0.495   40.6    991     0       1.9     0.4;
   122     1       0       0       0       0       202     1.068   43.5    500     0       1.1     1;
   123     1       0       0       0       0       204     1.004   39.7    345     0       1.05    0.95;
   124     1       0       0       0       0       202     0.679   38.8    991     0       1.9     0.4;
   125     1       0       0       0       0       202     1.321   34.4    500     0       1.1     1;
   126     1       0       0       0       0       204     0.512   32      345     0       1.05    0.95;
   127     1       0       0       0       0       204     0.461   34.6    345     0       1.05    0.95;
   128     1       0       0       0       0       204     0.461   34.6    345     0       1.05    0.95;
   129     1       0       0       0       0       204     0.443   33.8    345     0       1.05    0.95;
   130     1       0       0       0       0       202     1.321   34.4    500     0       1.1     1;
   131     1       0       0       0       0       189     0.941   51.9    345     0       1.05    0.95;
   133     1       0       0       0       0       222     0.664   33.5    991     0       1.9     0.4;
   134     1       0       0       0       0       204     0.968   52.3    345     0       1.05    0.95;
   135     1       0       0       0       0       222     0.587   33      991     0       1.9     0.4;
   136     1       0       0       0       0       189     0.581   46.5    345     0       1.05    0.95;
   137     1       0       0       0       0       222     0.587   33      991     0       1.9     0.4;
   138     1       0       0       0       0       189     0.606   37      345     0       1.05    0.95;
   139     1       0       0       0       0       221     0.823   37      991     0       1.9     0.4;
   140     1       0       0       0       0       222     1.006   36.5    345     0       1.05    0.95;
   141     1       0       0       0       0       221     0.686   35.4    991     0       1.9     0.4;
   142     1       0       0       0       0       221     0.692   35.6    991     0       1.9     0.4;
   143     1       0       0       0       0       222     0.661   33.5    991     0       1.9     0.4;
   144     1       0       0       0       0       222     0.681   35.3    345     0       1.05    0.95;
   145     1       0       0       0       0       222     0.666   33.4    991     0       1.9     0.4;
   146     1       0       0       0       0       222     0.665   33.5    991     0       1.9     0.4;
   147     1       0       0       0       0       222     1.015   30.4    345     0       1.05    0.95;
   148     1       0       0       0       0       222     0.851   28.9    991     0       1.9     0.4;
   149     1       0       0       0       0       234     0.827   27.4    345     0       1.05    0.95;
   150     1       0       0       0       0       234     0.877   25      991     0       1.9     0.4;
   152     1       0       0       0       0       234     0.875   25      991     0       1.9     0.4;
   153     1       0       0       0       0       234     0.884   24.9    991     0       1.9     0.4;
   154     1       0       0       0       0       234     0.906   25      13.8    0       1.9     0.4;
   155     1       0       0       0       0       234     0.915   24.9    13.8    0       1.9     0.4;
   156     1       0       0       0       0       234     0.895   25.1    13.8    0       1.9     0.4;
   158     1       0       0       0       0       234     0.868   25.1    991     0       1.9     0.4;
   159     1       0       0       0       0       222     0.557   33      13.8    0       1.9     0.4;
   160     1       0       0       0       0       222     0.563   32.9    13.8    0       1.9     0.4;
   161     1       0       0       0       0       205     0.994   33.5    230     0       1.05    0.95;
   162     1       0       0       0       0       204     0.694   38.3    991     0       1.9     0.4;
   163     1       0       0       0       0       204     0.663   38.3    13.8    0       1.9     0.4;
   164     1       0       0       0       0       189     0.565   39      991     0       1.9     0.4;
   165     1       0       0       0       0       189     0.499   39      13.8    0       1.9     0.4;
   166     1       0       0       0       0       222     0.588   32.9    991     0       1.9     0.4;
   167     1       0       0       0       0       222     0.557   33      13.8    0       1.9     0.4;
   169     1       0       0       0       0       224     1.015   35.6    138     0       1.05    0.95;
   170     1       0       0       0       0       196     1.04    39.3    138     0       1.05    0.95;
   171     1       0       0       0       0       207     0.666   38.2    138     0       1.05    0.95;
   172     1       0       0       0       0       226     0.566   33.9    138     0       1.05    0.95;
   173     1       0       0       0       0       226     1.04    33.6    138     0       1.05    0.95;
   174     1       0       0       0       0       228     0.894   29.1    138     0       1.05    0.95;
   175     1       0       0       0       0       229     1.035   29      138     0       1.05    0.95;
   176     1       0       0       0       0       202     0.679   39      991     0       1.9     0.4;
   177     1       0       0       0       0       236     1.03    25.2    138     0       1.05    0.95;
   178     1       0       0       0       0       224     1.0     34.7    138     0       1.05    0.95;
   179     1       0       0       0       0       221     0.983   34.5    991     0       1.9     0.4;
   180     1       0       0       0       0       224     1.0     33.1    138     0       1.05    0.95;
   181     1       0       0       0       0       221     1.02    38.3    138     0       1.05    0.95;
   182     1       0       0       0       0       225     0.632   39.8    138     0       1.05    0.95;
   183     1       0       0       0       0       214     1.035   40.6    138     0       1.05    0.95;
   184     1       0       0       0       0       224     0.742   34.6    138     0       1.05    0.95;
   185     1       0       0       0       0       225     0.636   46.2    138     0       1.05    0.95;
   186     1       0       0       0       0       202     0.679   39      13.8    0       1.9     0.4;
   187     1       0       0       0       0       195     1.04    51.4    138     0       1.05    0.95;
   189     1       0       0       0       0       159     0.358   36.2    991     0       1.9     0.4;
   190     1       0       0       0       0       208     1.117   62.6    138     0       1.05    0.95;
   192     1       0       0       0       0       222     0.901   28.9    13.8    0       1.9     0.4;
   194     1       0       0       0       0       221     0.657   35.6    13.8    0       1.9     0.4;
   195     1       0       0       0       0       221     0.652   35.4    13.8    0       1.9     0.4;
   196     1       0       0       0       0       202     0.594   38.8    13.8    0       1.9     0.4;
   197     1       0       0       0       0       221     0.775   37      13.8    0       1.9     0.4;
   198     1       0       0       0       0       188     0.387   40.6    13.8    0       1.9     0.4;
   199     1       0       0       0       0       234     1.008   25      13.8    0       1.9     0.4;
   200     1       0       0       0       0       229     0.925   27.2    991     0       1.9     0.4;
   201     1       0       0       0       0       229     0.925   27.2    992     0       1.05    0.95;
   202     1       0       0       0       0       229     0.925   27.2    991     0       1.9     0.4;
   203     1       0       0       0       0       229     0.925   27.2    992     0       1.05    0.95;
   204     1       0       0       0       0       222     0.666   33.4    13.8    0       1.9     0.4;
   205     1       0       0       0       0       222     0.665   33.5    13.8    0       1.9     0.4;
   206     1       0       0       0       0       222     0.661   33.5    13.8    0       1.9     0.4;
   208     1       0       0       0       0       159     0.458   36.2    13.8    0       1.9     0.4;
   209     1       0       0       0       0       222     0.664   33.5    13.8    0       1.9     0.4;
   210     1       0       0       0       0       188     1.011   53      500     0       1.1     1;
   211     1       0       0       0       0       222     0.952   28.9    991     0       1.9     0.4;
   212     1       0       0       0       0       222     0.952   28.9    13.8    0       1.9     0.4;
   213     1       0       0       0       0       189     1.017   52.5    345     0       1.05    0.95;
   214     1       0       0       0       0       188     1.114   52.6    991     0       1.9     0.4;
   216     1       0       0       0       0       189     1.108   52.8    345     0       1.05    0.95;
   217     1       0       0       0       0       189     0.96    51.2    345     0       1.05    0.95;
   218     1       0       0       0       0       148     0.945   43.6    345     0       1.05    0.95;
   219     1       0       0       0       0       158     0.504   42.7    345     0       1.05    0.95;
   220     1       0       0       0       0       148     0.928   51.2    345     0       1.05    0.95;
   221     1       0       0       0       0       160     1.012   36.5    34.5    0       1.05    0.95;
   222     1       0       0       0       0       158     0.479   40.8    991     0       1.9     0.4;
   223     1       0       0       0       0       148     1.057   41.8    991     0       1.9     0.4;
   224     1       0       0       0       0       148     1.065   41.7    991     0       1.9     0.4;
   225     1       0       0       0       0       190     1.042   50.9    230     0       1.05    0.95;
   226     1       0       0       0       0       149     1.071   42.1    230     0       1.05    0.95;
   227     1       0       0       0       0       159     0.476   40.9    230     0       1.05    0.95;
   228     1       0       0       0       0       159     0.477   41.2    230     0       1.05    0.95;
   229     1       0       0       0       0       149     0.994   32.8    230     0       1.05    0.95;
   230     1       0       0       0       0       149     1.008   44      230     0       1.05    0.95;
   231     1       0       0       0       0       149     0.706   48.7    230     0       1.05    0.95;
   232     1       0       0       0       0       158     0.479   40.8    13.8    0       1.9     0.4;
   233     1       0       0       0       0       157     0.594   44.4    500     0       1.1     1;
   234     1       0       0       0       0       158     1.013   43.3    345     0       1.05    0.95;
   235     1       0       0       0       0       147     0.532   42.9    500     0       1.1     1;
   236     1       0       0       0       0       160     1.013   39.3    138     0       1.05    0.95;
   237     1       0       0       0       0       160     0.965   42      138     0       1.05    0.95;
   238     1       0       0       0       0       153     1.027   46.8    138     0       1.05    0.95;
   239     1       0       0       0       0       154     1.021   42.4    138     0       1.05    0.95;
...
];
%% generator data
%	bus       Pg        Qg        Qmax      Qmin      Vg        mBase     status    Pmax      Pmin      Pc1       Pc2       Qc1min    Qc1max    Qc2min    Qc2max    ramp_agc  ramp_10   ramp_30   ramp_q    apf
mpc.gen = [
   11        1350.0    1555.0    600.0     -350.0    0.978     100       1         1350.0    0.0       0.00      0.00      0.00      0.00      0.00      0.00      0.00      0.00      0.00      0.00      0.00;
   8646      0.0       11.99     30.86     -30.9     1.029     100       1         40.0      0.0       0.00      0.00      0.00      0.00      0.00      0.00      0.00      0.00      0.00      0.00      0.00;
   8646      36.29     11.99     30.86     -30.9     1.029     100       1         40.0      0.0       0.00      0.00      0.00      0.00      0.00      0.00      0.00      0.00      0.00      0.00      0.00;
   8653      38.71     18.25     74.98     -75.0     1.036     100       1         43.0      0.0       0.00      0.00      0.00      0.00      0.00      0.00      0.00      0.00      0.00      0.00      0.00;
   8653      0.0       18.25     74.98     -75.0     1.036     100       1         43.0      0.0       0.00      0.00      0.00      0.00      0.00      0.00      0.00      0.00      0.00      0.00      0.00;
   802       0.0       27.81     0.0       0.0       1.008     100       1         235.0     0.0       0.00      0.00      0.00      0.00      0.00      0.00      0.00      0.00      0.00      0.00      0.00;
   802       0.0       27.81     0.0       0.0       1.008     100       1         235.0     0.0       0.00      0.00      0.00      0.00      0.00      0.00      0.00      0.00      0.00      0.00      0.00;
   803       0.0       27.81     0.0       0.0       1.008     100       1         484.15    0.0       0.00      0.00      0.00      0.00      0.00      0.00      0.00      0.00      0.00      0.00      0.00;
   9600      0.0       -33.3     96.0      -96.0     1.003     100       1         90.0      0.0       0.00      0.00      0.00      0.00      0.00      0.00      0.00      0.00      0.00      0.00      0.00;
   9603      155.0     -83.4     233.0     -233.0    0.994     100       1         155.0     0.0       0.00      0.00      0.00      0.00      0.00      0.00      0.00      0.00      0.00      0.00      0.00;
   9627      0.0       -32.4     0.0       0.0       1.011     100       1         265.0     0.0       0.00      0.00      0.00      0.00      0.00      0.00      0.00      0.00      0.00      0.00      0.00;
   9627      0.0       -32.4     0.0       0.0       1.011     100       1         265.0     0.0       0.00      0.00      0.00      0.00      0.00      0.00      0.00      0.00      0.00      0.00      0.00;
   9628      0.0       -15.9     0.0       0.0       1.011     100       1         530.0     0.0       0.00      0.00      0.00      0.00      0.00      0.00      0.00      0.00      0.00      0.00      0.00;
   5220      0.0       0.29      0.0       0.0       1.003     100       1         42.27     0.0       0.00      0.00      0.00      0.00      0.00      0.00      0.00      0.00      0.00      0.00      0.00;
   5220      0.0       0.29      0.0       0.0       1.003     100       1         42.27     0.0       0.00      0.00      0.00      0.00      0.00      0.00      0.00      0.00      0.00      0.00      0.00;
   5220      0.0       0.29      0.0       0.0       1.003     100       1         42.27     0.0       0.00      0.00      0.00      0.00      0.00      0.00      0.00      0.00      0.00      0.00      0.00;
   5220      0.0       0.29      0.0       0.0       1.003     100       1         42.27     0.0       0.00      0.00      0.00      0.00      0.00      0.00      0.00      0.00      0.00      0.00      0.00;
   1173      300.0     -24.8     160.0     -115.0    0.95      100       1         350.0     0.0       0.00      0.00      0.00      0.00      0.00      0.00      0.00      0.00      0.00      0.00      0.00;
   8611      17.08     0.94      51.24     -16.0     1.004     100       1         17.08     0.0       0.00      0.00      0.00      0.00      0.00      0.00      0.00      0.00      0.00      0.00      0.00;
   8611      1.07      0.94      51.24     -16.0     1.004     100       1         17.08     0.0       0.00      0.00      0.00      0.00      0.00      0.00      0.00      0.00      0.00      0.00      0.00;
   8611      17.08     0.94      51.24     -16.0     1.004     100       1         17.08     0.0       0.00      0.00      0.00      0.00      0.00      0.00      0.00      0.00      0.00      0.00      0.00;
   8611      17.08     0.94      51.24     -16.0     1.004     100       1         17.08     0.0       0.00      0.00      0.00      0.00      0.00      0.00      0.00      0.00      0.00      0.00      0.00;
   9100      0.0       -12.1     0.0       0.0       0.963     100       1         48.0      0.0       0.00      0.00      0.00      0.00      0.00      0.00      0.00      0.00      0.00      0.00      0.00;
   9101      0.0       -17.6     0.0       0.0       0.963     100       1         216.0     0.0       0.00      0.00      0.00      0.00      0.00      0.00      0.00      0.00      0.00      0.00      0.00;
   5654      0.0       87.1      0.0       0.0       0.995     100       1         160.0     0.0       0.00      0.00      0.00      0.00      0.00      0.00      0.00      0.00      0.00      0.00      0.00;
   5654      0.0       87.1      0.0       0.0       0.995     100       1         160.0     0.0       0.00      0.00      0.00      0.00      0.00      0.00      0.00      0.00      0.00      0.00      0.00;
   5655      0.0       45.72     0.0       0.0       0.995     100       1         327.0     0.0       0.00      0.00      0.00      0.00      0.00      0.00      0.00      0.00      0.00      0.00      0.00;
   5820      0.0       0.0       0.0       0.0       1.0       100       1         79.36     0.0       0.00      0.00      0.00      0.00      0.00      0.00      0.00      0.00      0.00      0.00      0.00;
   5820      0.0       0.0       0.0       0.0       1.0       100       1         79.36     0.0       0.00      0.00      0.00      0.00      0.00      0.00      0.00      0.00      0.00      0.00      0.00;
   5820      0.0       0.0       0.0       0.0       1.0       100       1         79.36     0.0       0.00      0.00      0.00      0.00      0.00      0.00      0.00      0.00      0.00      0.00      0.00;
   5820      0.0       0.0       0.0       0.0       1.0       100       1         69.44     0.0       0.00      0.00      0.00      0.00      0.00      0.00      0.00      0.00      0.00      0.00      0.00;
   5823      0.0       0.0       0.0       0.0       1.0       100       1         79.36     0.0       0.00      0.00      0.00      0.00      0.00      0.00      0.00      0.00      0.00      0.00      0.00;
   5823      0.0       0.0       0.0       0.0       1.0       100       1         79.36     0.0       0.00      0.00      0.00      0.00      0.00      0.00      0.00      0.00      0.00      0.00      0.00;
   5823      0.0       0.0       0.0       0.0       1.0       100       1         79.36     0.0       0.00      0.00      0.00      0.00      0.00      0.00      0.00      0.00      0.00      0.00      0.00;
   5823      0.0       0.0       0.0       0.0       1.0       100       1         69.44     0.0       0.00      0.00      0.00      0.00      0.00      0.00      0.00      0.00      0.00      0.00      0.00;
   3017      0.0       -5692.0   0.0       0.0       0.994     100       1         68.06     0.0       0.00      0.00      0.00      0.00      0.00      0.00      0.00      0.00      0.00      0.00      0.00;
   3017      0.0       -5692.0   0.0       0.0       0.994     100       1         68.06     0.0       0.00      0.00      0.00      0.00      0.00      0.00      0.00      0.00      0.00      0.00      0.00;
   1585      0.0       326.5     0.0       0.0       0.952     100       1         235.0     0.0       0.00      0.00      0.00      0.00      0.00      0.00      0.00      0.00      0.00      0.00      0.00;
   907       0.0       137.5     0.0       0.0       0.962     100       1         40.0      0.0       0.00      0.00      0.00      0.00      0.00      0.00      0.00      0.00      0.00      0.00      0.00;
   907       0.0       137.5     0.0       0.0       0.962     100       1         40.0      0.0       0.00      0.00      0.00      0.00      0.00      0.00      0.00      0.00      0.00      0.00      0.00;
   4100      0.0       -7.31     0.0       0.0       0.94      100       1         43.11     0.0       0.00      0.00      0.00      0.00      0.00      0.00      0.00      0.00      0.00      0.00      0.00;
   4180      0.0       -9.46     0.0       0.0       0.984     100       1         43.94     0.0       0.00      0.00      0.00      0.00      0.00      0.00      0.00      0.00      0.00      0.00      0.00;
   909       55.0      68.57     48.0      -42.0     0.972     100       1         55.0      0.0       0.00      0.00      0.00      0.00      0.00      0.00      0.00      0.00      0.00      0.00      0.00;
   911       110.0     66.44     68.5      -15.5     0.993     100       1         110.0     0.0       0.00      0.00      0.00      0.00      0.00      0.00      0.00      0.00      0.00      0.00      0.00;
   913       300.0     97.91     164.5     -61.0     0.97      100       1         330.0     0.0       0.00      0.00      0.00      0.00      0.00      0.00      0.00      0.00      0.00      0.00      0.00;
   8612      36.08     6.13      29.37     -21.2     0.989     100       1         36.08     0.0       0.00      0.00      0.00      0.00      0.00      0.00      0.00      0.00      0.00      0.00      0.00;
   8616      26.92     5.6       26.7      -19.3     0.989     100       1         39.36     0.0       0.00      0.00      0.00      0.00      0.00      0.00      0.00      0.00      0.00      0.00      0.00;
   9026      0.0       -26.2     0.0       0.0       1.005     100       1         51.0      0.0       0.00      0.00      0.00      0.00      0.00      0.00      0.00      0.00      0.00      0.00      0.00;
   9026      0.0       -26.2     0.0       0.0       1.005     100       1         51.0      0.0       0.00      0.00      0.00      0.00      0.00      0.00      0.00      0.00      0.00      0.00      0.00;
   9026      0.0       -26.2     0.0       0.0       1.005     100       1         51.0      0.0       0.00      0.00      0.00      0.00      0.00      0.00      0.00      0.00      0.00      0.00      0.00;
   9026      0.0       -26.2     0.0       0.0       1.005     100       1         51.0      0.0       0.00      0.00      0.00      0.00      0.00      0.00      0.00      0.00      0.00      0.00      0.00;
   9026      0.0       -26.2     0.0       0.0       1.005     100       1         36.0      0.0       0.00      0.00      0.00      0.00      0.00      0.00      0.00      0.00      0.00      0.00      0.00;
   8609      18.35     29.27     51.24     -51.2     1.01      100       1         18.35     0.0       0.00      0.00      0.00      0.00      0.00      0.00      0.00      0.00      0.00      0.00      0.00;
   8609      18.35     29.27     51.24     -51.2     1.01      100       1         18.35     0.0       0.00      0.00      0.00      0.00      0.00      0.00      0.00      0.00      0.00      0.00      0.00;
   8609      15.3      29.27     51.24     -51.2     1.01      100       1         18.35     0.0       0.00      0.00      0.00      0.00      0.00      0.00      0.00      0.00      0.00      0.00      0.00;
   8609      0.0       29.27     51.24     -51.2     1.01      100       1         18.35     0.0       0.00      0.00      0.00      0.00      0.00      0.00      0.00      0.00      0.00      0.00      0.00;
   5460      0.0       79.03     0.0       0.0       1.018     100       1         20.37     0.0       0.00      0.00      0.00      0.00      0.00      0.00      0.00      0.00      0.00      0.00      0.00;
   5460      0.0       79.03     0.0       0.0       1.018     100       1         20.37     0.0       0.00      0.00      0.00      0.00      0.00      0.00      0.00      0.00      0.00      0.00      0.00;
   5460      0.0       79.03     0.0       0.0       1.018     100       1         20.37     0.0       0.00      0.00      0.00      0.00      0.00      0.00      0.00      0.00      0.00      0.00      0.00;
   5460      0.0       79.03     0.0       0.0       1.018     100       1         20.37     0.0       0.00      0.00      0.00      0.00      0.00      0.00      0.00      0.00      0.00      0.00      0.00;
   5460      0.0       79.03     0.0       0.0       1.018     100       1         20.37     0.0       0.00      0.00      0.00      0.00      0.00      0.00      0.00      0.00      0.00      0.00      0.00;
   5460      0.0       79.03     0.0       0.0       1.018     100       1         20.37     0.0       0.00      0.00      0.00      0.00      0.00      0.00      0.00      0.00      0.00      0.00      0.00;
   5460      0.0       79.03     0.0       0.0       1.018     100       1         20.37     0.0       0.00      0.00      0.00      0.00      0.00      0.00      0.00      0.00      0.00      0.00      0.00;
   5460      0.0       79.03     0.0       0.0       1.018     100       1         20.37     0.0       0.00      0.00      0.00      0.00      0.00      0.00      0.00      0.00      0.00      0.00      0.00;
   5646      490.0     374.7     146.0     -181.0    1.027     100       1         518.8     0.0       0.00      0.00      0.00      0.00      0.00      0.00      0.00      0.00      0.00      0.00      0.00;
   5647      0.0       204.0     109.0     -47.0     1.043     100       1         337.6     0.0       0.00      0.00      0.00      0.00      0.00      0.00      0.00      0.00      0.00      0.00      0.00;
   5648      0.0       204.0     109.0     -47.0     1.043     100       1         337.6     0.0       0.00      0.00      0.00      0.00      0.00      0.00      0.00      0.00      0.00      0.00      0.00;
   5650      0.0       220.2     0.0       0.0       1.055     100       1         178.21    0.0       0.00      0.00      0.00      0.00      0.00      0.00      0.00      0.00      0.00      0.00      0.00;
   3962      0.0       -77.9     240.0     -140.0    1.007     100       1         250.0     0.0       0.00      0.00      0.00      0.00      0.00      0.00      0.00      0.00      0.00      0.00      0.00;
   3962      0.0       -77.9     240.0     -140.0    1.007     100       1         250.0     0.0       0.00      0.00      0.00      0.00      0.00      0.00      0.00      0.00      0.00      0.00      0.00;
   3962      0.0       -77.9     240.0     -140.0    1.007     100       1         250.0     0.0       0.00      0.00      0.00      0.00      0.00      0.00      0.00      0.00      0.00      0.00      0.00;
   3963      0.0       -84.8     180.0     -110.0    0.997     100       1         520.0     0.0       0.00      0.00      0.00      0.00      0.00      0.00      0.00      0.00      0.00      0.00      0.00;
   6447      0.0       89.15     0.0       0.0       1.022     100       1         41.86     0.0       0.00      0.00      0.00      0.00      0.00      0.00      0.00      0.00      0.00      0.00      0.00;
   6447      0.0       89.15     0.0       0.0       1.022     100       1         33.5      0.0       0.00      0.00      0.00      0.00      0.00      0.00      0.00      0.00      0.00      0.00      0.00;
   6448      0.0       89.15     0.0       0.0       1.022     100       1         41.86     0.0       0.00      0.00      0.00      0.00      0.00      0.00      0.00      0.00      0.00      0.00      0.00;
   6448      0.0       89.15     0.0       0.0       1.022     100       1         41.86     0.0       0.00      0.00      0.00      0.00      0.00      0.00      0.00      0.00      0.00      0.00      0.00;
   404       0.0       591.0     0.0       0.0       0.963     100       1         280.0     0.0       0.00      0.00      0.00      0.00      0.00      0.00      0.00      0.00      0.00      0.00      0.00;
   404       0.0       591.0     0.0       0.0       0.963     100       1         280.0     0.0       0.00      0.00      0.00      0.00      0.00      0.00      0.00      0.00      0.00      0.00      0.00;
   405       0.0       705.2     0.0       0.0       0.987     100       1         140.0     0.0       0.00      0.00      0.00      0.00      0.00      0.00      0.00      0.00      0.00      0.00      0.00;
   405       0.0       705.2     0.0       0.0       0.987     100       1         140.0     0.0       0.00      0.00      0.00      0.00      0.00      0.00      0.00      0.00      0.00      0.00      0.00;
   406       0.0       718.1     0.0       0.0       0.998     100       1         140.0     0.0       0.00      0.00      0.00      0.00      0.00      0.00      0.00      0.00      0.00      0.00      0.00;
   406       0.0       718.1     0.0       0.0       0.998     100       1         140.0     0.0       0.00      0.00      0.00      0.00      0.00      0.00      0.00      0.00      0.00      0.00      0.00;
   8610      18.35     33.67     51.24     -16.0     1.033     100       1         18.35     0.0       0.00      0.00      0.00      0.00      0.00      0.00      0.00      0.00      0.00      0.00      0.00;
   8610      18.35     33.67     51.24     -16.0     1.033     100       1         18.35     0.0       0.00      0.00      0.00      0.00      0.00      0.00      0.00      0.00      0.00      0.00      0.00;
   8610      18.35     33.67     51.24     -16.0     1.033     100       1         18.35     0.0       0.00      0.00      0.00      0.00      0.00      0.00      0.00      0.00      0.00      0.00      0.00;
   8610      8.95      33.67     51.24     -16.0     1.033     100       1         18.35     0.0       0.00      0.00      0.00      0.00      0.00      0.00      0.00      0.00      0.00      0.00      0.00;
   5658      0.0       168.2     0.0       0.0       0.99      100       1         360.0     0.0       0.00      0.00      0.00      0.00      0.00      0.00      0.00      0.00      0.00      0.00      0.00;
   5658      0.0       168.2     0.0       0.0       0.99      100       1         360.0     0.0       0.00      0.00      0.00      0.00      0.00      0.00      0.00      0.00      0.00      0.00      0.00;
   5187      0.0       1.54      0.0       0.0       1.013     100       1         12.48     0.0       0.00      0.00      0.00      0.00      0.00      0.00      0.00      0.00      0.00      0.00      0.00;
   5187      0.0       1.54      0.0       0.0       1.013     100       1         13.92     0.0       0.00      0.00      0.00      0.00      0.00      0.00      0.00      0.00      0.00      0.00      0.00;
   5187      0.0       1.54      0.0       0.0       1.013     100       1         12.48     0.0       0.00      0.00      0.00      0.00      0.00      0.00      0.00      0.00      0.00      0.00      0.00;
   5187      0.0       1.54      0.0       0.0       1.013     100       1         13.92     0.0       0.00      0.00      0.00      0.00      0.00      0.00      0.00      0.00      0.00      0.00      0.00;
   5187      0.0       1.54      0.0       0.0       1.013     100       1         12.48     0.0       0.00      0.00      0.00      0.00      0.00      0.00      0.00      0.00      0.00      0.00      0.00;
   5187      0.0       1.54      0.0       0.0       1.013     100       1         14.88     0.0       0.00      0.00      0.00      0.00      0.00      0.00      0.00      0.00      0.00      0.00      0.00;
   5187      0.0       1.54      0.0       0.0       1.013     100       1         13.92     0.0       0.00      0.00      0.00      0.00      0.00      0.00      0.00      0.00      0.00      0.00      0.00;
   5609      0.0       268.5     0.0       0.0       0.972     100       1         360.14    0.0       0.00      0.00      0.00      0.00      0.00      0.00      0.00      0.00      0.00      0.00      0.00;
   3740      0.0       16.63     0.0       0.0       0.994     100       1         70.58     0.0       0.00      0.00      0.00      0.00      0.00      0.00      0.00      0.00      0.00      0.00      0.00;
   3740      0.0       16.63     0.0       0.0       0.994     100       1         69.86     0.0       0.00      0.00      0.00      0.00      0.00      0.00      0.00      0.00      0.00      0.00      0.00;
   998       300.0     77.21     160.0     -115.0    0.996     100       1         345.0     0.0       0.00      0.00      0.00      0.00      0.00      0.00      0.00      0.00      0.00      0.00      0.00;
   5642      0.0       74.04     0.0       0.0       1.055     100       1         56.3      0.0       0.00      0.00      0.00      0.00      0.00      0.00      0.00      0.00      0.00      0.00      0.00;
   5642      0.0       74.04     0.0       0.0       1.055     100       1         365.32    0.0       0.00      0.00      0.00      0.00      0.00      0.00      0.00      0.00      0.00      0.00      0.00;
   5659      0.0       84.08     0.0       0.0       0.99      100       1         365.0     0.0       0.00      0.00      0.00      0.00      0.00      0.00      0.00      0.00      0.00      0.00      0.00;
   5178      0.0       4.34      0.0       0.0       1.013     100       1         52.38     0.0       0.00      0.00      0.00      0.00      0.00      0.00      0.00      0.00      0.00      0.00      0.00;
   5178      0.0       4.34      0.0       0.0       1.013     100       1         52.38     0.0       0.00      0.00      0.00      0.00      0.00      0.00      0.00      0.00      0.00      0.00      0.00;
   5178      0.0       4.34      0.0       0.0       1.013     100       1         52.38     0.0       0.00      0.00      0.00      0.00      0.00      0.00      0.00      0.00      0.00      0.00      0.00;
   5178      0.0       4.34      0.0       0.0       1.013     100       1         43.6      0.0       0.00      0.00      0.00      0.00      0.00      0.00      0.00      0.00      0.00      0.00      0.00;
   6314      0.0       53.2      0.0       0.0       1.01      100       1         16.5      0.0       0.00      0.00      0.00      0.00      0.00      0.00      0.00      0.00      0.00      0.00      0.00;
   6314      0.0       53.2      0.0       0.0       1.01      100       1         33.0      0.0       0.00      0.00      0.00      0.00      0.00      0.00      0.00      0.00      0.00      0.00      0.00;
   6314      0.0       53.2      0.0       0.0       1.01      100       1         49.5      0.0       0.00      0.00      0.00      0.00      0.00      0.00      0.00      0.00      0.00      0.00      0.00;
   6314      0.0       53.2      0.0       0.0       1.01      100       1         66.0      0.0       0.00      0.00      0.00      0.00      0.00      0.00      0.00      0.00      0.00      0.00      0.00;
   6314      0.0       53.2      0.0       0.0       1.01      100       1         82.5      0.0       0.00      0.00      0.00      0.00      0.00      0.00      0.00      0.00      0.00      0.00      0.00;
   6314      0.0       53.2      0.0       0.0       1.01      100       1         99.0      0.0       0.00      0.00      0.00      0.00      0.00      0.00      0.00      0.00      0.00      0.00      0.00;
   6314      0.0       53.2      0.0       0.0       1.01      100       1         115.5     0.0       0.00      0.00      0.00      0.00      0.00      0.00      0.00      0.00      0.00      0.00      0.00;
   6314      0.0       53.2      0.0       0.0       1.01      100       1         132.0     0.0       0.00      0.00      0.00      0.00      0.00      0.00      0.00      0.00      0.00      0.00      0.00;
   5700      0.0       -90.0     0.0       0.0       1.041     100       1         1593.2    0.0       0.00      0.00      0.00      0.00      0.00      0.00      0.00      0.00      0.00      0.00      0.00;
   5700      0.0       -90.0     0.0       0.0       1.041     100       1         1060.0    0.0       0.00      0.00      0.00      0.00      0.00      0.00      0.00      0.00      0.00      0.00      0.00;
   5700      0.0       -90.0     0.0       0.0       1.041     100       1         1060.0    0.0       0.00      0.00      0.00      0.00      0.00      0.00      0.00      0.00      0.00      0.00      0.00;
   5800      0.0       -30.0     0.0       0.0       1.041     100       1         1060.0    0.0       0.00      0.00      0.00      0.00      0.00      0.00      0.00      0.00      0.00      0.00      0.00;
   5240      0.0       0.18      0.0       0.0       0.997     100       1         13.28     0.0       0.00      0.00      0.00      0.00      0.00      0.00      0.00      0.00      0.00      0.00      0.00;
   5240      0.0       0.18      0.0       0.0       0.997     100       1         13.28     0.0       0.00      0.00      0.00      0.00      0.00      0.00      0.00      0.00      0.00      0.00      0.00;
   5240      0.0       0.18      0.0       0.0       0.997     100       1         13.28     0.0       0.00      0.00      0.00      0.00      0.00      0.00      0.00      0.00      0.00      0.00      0.00;
   5240      0.0       0.18      0.0       0.0       0.997     100       1         13.28     0.0       0.00      0.00      0.00      0.00      0.00      0.00      0.00      0.00      0.00      0.00      0.00;
   5242      0.0       0.27      0.0       0.0       0.997     100       1         9.57      0.0       0.00      0.00      0.00      0.00      0.00      0.00      0.00      0.00      0.00      0.00      0.00;
   5242      0.0       0.27      0.0       0.0       0.997     100       1         9.57      0.0       0.00      0.00      0.00      0.00      0.00      0.00      0.00      0.00      0.00      0.00      0.00;
   5242      0.0       0.27      0.0       0.0       0.997     100       1         9.57      0.0       0.00      0.00      0.00      0.00      0.00      0.00      0.00      0.00      0.00      0.00      0.00;
   5242      0.0       0.27      0.0       0.0       0.997     100       1         8.25      0.0       0.00      0.00      0.00      0.00      0.00      0.00      0.00      0.00      0.00      0.00      0.00;
   5242      0.0       0.27      0.0       0.0       0.997     100       1         9.57      0.0       0.00      0.00      0.00      0.00      0.00      0.00      0.00      0.00      0.00      0.00      0.00;
   5242      0.0       0.27      0.0       0.0       0.997     100       1         8.25      0.0       0.00      0.00      0.00      0.00      0.00      0.00      0.00      0.00      0.00      0.00      0.00;
   6104      0.0       -2.55     0.0       0.0       1.01      100       1         9.34      0.0       0.00      0.00      0.00      0.00      0.00      0.00      0.00      0.00      0.00      0.00      0.00;
   6104      0.0       -2.55     0.0       0.0       1.01      100       1         9.34      0.0       0.00      0.00      0.00      0.00      0.00      0.00      0.00      0.00      0.00      0.00      0.00;
   6104      0.0       -2.55     0.0       0.0       1.01      100       1         9.34      0.0       0.00      0.00      0.00      0.00      0.00      0.00      0.00      0.00      0.00      0.00      0.00;
   8421      0.0       -4.92     0.0       0.0       1.01      100       1         9.36      0.0       0.00      0.00      0.00      0.00      0.00      0.00      0.00      0.00      0.00      0.00      0.00;
   8421      0.0       -4.92     0.0       0.0       1.01      100       1         9.36      0.0       0.00      0.00      0.00      0.00      0.00      0.00      0.00      0.00      0.00      0.00      0.00;
   8421      0.0       -4.92     0.0       0.0       1.01      100       1         9.36      0.0       0.00      0.00      0.00      0.00      0.00      0.00      0.00      0.00      0.00      0.00      0.00;
   8421      0.0       -4.92     0.0       0.0       1.01      100       1         9.36      0.0       0.00      0.00      0.00      0.00      0.00      0.00      0.00      0.00      0.00      0.00      0.00;
   45528     0.0       -4.92     0.0       0.0       1.01      100       1         9.33      0.0       0.00      0.00      0.00      0.00      0.00      0.00      0.00      0.00      0.00      0.00      0.00;
   45528     0.0       -4.92     0.0       0.0       1.01      100       1         9.33      0.0       0.00      0.00      0.00      0.00      0.00      0.00      0.00      0.00      0.00      0.00      0.00;
   45528     0.0       -4.92     0.0       0.0       1.01      100       1         9.33      0.0       0.00      0.00      0.00      0.00      0.00      0.00      0.00      0.00      0.00      0.00      0.00;
   45528     0.0       -4.92     0.0       0.0       1.01      100       1         9.33      0.0       0.00      0.00      0.00      0.00      0.00      0.00      0.00      0.00      0.00      0.00      0.00;
   45528     0.0       -4.92     0.0       0.0       1.01      100       1         9.33      0.0       0.00      0.00      0.00      0.00      0.00      0.00      0.00      0.00      0.00      0.00      0.00;
   45528     0.0       -4.92     0.0       0.0       1.01      100       1         9.33      0.0       0.00      0.00      0.00      0.00      0.00      0.00      0.00      0.00      0.00      0.00      0.00;
   1152      0.0       374.3     0.0       0.0       1.006     100       1         248.57    0.0       0.00      0.00      0.00      0.00      0.00      0.00      0.00      0.00      0.00      0.00      0.00;
   3974      0.0       -81.1     0.0       0.0       0.994     100       1         180.0     0.0       0.00      0.00      0.00      0.00      0.00      0.00      0.00      0.00      0.00      0.00      0.00;
   3974      0.0       -81.1     0.0       0.0       0.994     100       1         225.0     0.0       0.00      0.00      0.00      0.00      0.00      0.00      0.00      0.00      0.00      0.00      0.00;
   3974      0.0       -81.1     0.0       0.0       0.994     100       1         270.0     0.0       0.00      0.00      0.00      0.00      0.00      0.00      0.00      0.00      0.00      0.00      0.00;
   3974      0.0       -81.1     0.0       0.0       0.994     100       1         315.0     0.0       0.00      0.00      0.00      0.00      0.00      0.00      0.00      0.00      0.00      0.00      0.00;
   3974      0.0       -81.1     0.0       0.0       0.994     100       1         45.0      0.0       0.00      0.00      0.00      0.00      0.00      0.00      0.00      0.00      0.00      0.00      0.00;
   3974      0.0       -81.1     0.0       0.0       0.994     100       1         90.0      0.0       0.00      0.00      0.00      0.00      0.00      0.00      0.00      0.00      0.00      0.00      0.00;
   3974      0.0       -81.1     0.0       0.0       0.994     100       1         135.0     0.0       0.00      0.00      0.00      0.00      0.00      0.00      0.00      0.00      0.00      0.00      0.00;
   6021      0.0       0.0       0.0       0.0       0.993     100       1         22.43     0.0       0.00      0.00      0.00      0.00      0.00      0.00      0.00      0.00      0.00      0.00      0.00;
   6021      0.0       0.0       0.0       0.0       0.993     100       1         44.85     0.0       0.00      0.00      0.00      0.00      0.00      0.00      0.00      0.00      0.00      0.00      0.00;
   6021      0.0       0.0       0.0       0.0       0.993     100       1         67.28     0.0       0.00      0.00      0.00      0.00      0.00      0.00      0.00      0.00      0.00      0.00      0.00;
   6022      0.0       0.0       0.0       0.0       0.993     100       1         89.71     0.0       0.00      0.00      0.00      0.00      0.00      0.00      0.00      0.00      0.00      0.00      0.00;
   6022      0.0       0.0       0.0       0.0       0.993     100       1         112.14    0.0       0.00      0.00      0.00      0.00      0.00      0.00      0.00      0.00      0.00      0.00      0.00;
   6022      0.0       0.0       0.0       0.0       0.993     100       1         134.56    0.0       0.00      0.00      0.00      0.00      0.00      0.00      0.00      0.00      0.00      0.00      0.00;
   6023      0.0       0.0       0.0       0.0       0.993     100       1         156.99    0.0       0.00      0.00      0.00      0.00      0.00      0.00      0.00      0.00      0.00      0.00      0.00;
   6023      0.0       0.0       0.0       0.0       0.993     100       1         179.42    0.0       0.00      0.00      0.00      0.00      0.00      0.00      0.00      0.00      0.00      0.00      0.00;
   6023      0.0       0.0       0.0       0.0       0.993     100       1         201.84    0.0       0.00      0.00      0.00      0.00      0.00      0.00      0.00      0.00      0.00      0.00      0.00;
   6024      0.0       0.0       0.0       0.0       0.993     100       1         224.27    0.0       0.00      0.00      0.00      0.00      0.00      0.00      0.00      0.00      0.00      0.00      0.00;
   6024      0.0       0.0       0.0       0.0       0.993     100       1         246.7     0.0       0.00      0.00      0.00      0.00      0.00      0.00      0.00      0.00      0.00      0.00      0.00;
   6024      0.0       0.0       0.0       0.0       0.993     100       1         269.12    0.0       0.00      0.00      0.00      0.00      0.00      0.00      0.00      0.00      0.00      0.00      0.00;
   6025      0.0       0.0       0.0       0.0       0.993     100       1         291.55    0.0       0.00      0.00      0.00      0.00      0.00      0.00      0.00      0.00      0.00      0.00      0.00;
   6025      0.0       0.0       0.0       0.0       0.993     100       1         313.98    0.0       0.00      0.00      0.00      0.00      0.00      0.00      0.00      0.00      0.00      0.00      0.00;
   6025      0.0       0.0       0.0       0.0       0.993     100       1         336.4     0.0       0.00      0.00      0.00      0.00      0.00      0.00      0.00      0.00      0.00      0.00      0.00;
   6026      0.0       0.0       0.0       0.0       0.993     100       1         358.83    0.0       0.00      0.00      0.00      0.00      0.00      0.00      0.00      0.00      0.00      0.00      0.00;
   6026      0.0       0.0       0.0       0.0       0.993     100       1         381.26    0.0       0.00      0.00      0.00      0.00      0.00      0.00      0.00      0.00      0.00      0.00      0.00;
   3524      0.0       -3.49     0.0       0.0       0.999     100       1         90.0      0.0       0.00      0.00      0.00      0.00      0.00      0.00      0.00      0.00      0.00      0.00      0.00;
   4300      0.0       -4.24     0.0       0.0       0.999     100       1         90.0      0.0       0.00      0.00      0.00      0.00      0.00      0.00      0.00      0.00      0.00      0.00      0.00;
   4300      0.0       -4.24     0.0       0.0       0.999     100       1         90.0      0.0       0.00      0.00      0.00      0.00      0.00      0.00      0.00      0.00      0.00      0.00      0.00;
   4301      0.0       -4.24     0.0       0.0       0.999     100       1         180.0     0.0       0.00      0.00      0.00      0.00      0.00      0.00      0.00      0.00      0.00      0.00      0.00;
   5188      0.0       2.77      0.0       0.0       1.013     100       1         6.24      0.0       0.00      0.00      0.00      0.00      0.00      0.00      0.00      0.00      0.00      0.00      0.00;
   5188      0.0       2.77      0.0       0.0       1.013     100       1         13.92     0.0       0.00      0.00      0.00      0.00      0.00      0.00      0.00      0.00      0.00      0.00      0.00;
   5188      0.0       2.77      0.0       0.0       1.013     100       1         12.48     0.0       0.00      0.00      0.00      0.00      0.00      0.00      0.00      0.00      0.00      0.00      0.00;
   5188      0.0       2.77      0.0       0.0       1.013     100       1         13.92     0.0       0.00      0.00      0.00      0.00      0.00      0.00      0.00      0.00      0.00      0.00      0.00;
   5188      0.0       2.77      0.0       0.0       1.013     100       1         4.8       0.0       0.00      0.00      0.00      0.00      0.00      0.00      0.00      0.00      0.00      0.00      0.00;
   5188      0.0       2.77      0.0       0.0       1.013     100       1         12.48     0.0       0.00      0.00      0.00      0.00      0.00      0.00      0.00      0.00      0.00      0.00      0.00;
   5188      0.0       2.77      0.0       0.0       1.013     100       1         12.48     0.0       0.00      0.00      0.00      0.00      0.00      0.00      0.00      0.00      0.00      0.00      0.00;
   5188      0.0       2.77      0.0       0.0       1.013     100       1         12.48     0.0       0.00      0.00      0.00      0.00      0.00      0.00      0.00      0.00      0.00      0.00      0.00;
   5188      0.0       2.77      0.0       0.0       1.013     100       1         13.92     0.0       0.00      0.00      0.00      0.00      0.00      0.00      0.00      0.00      0.00      0.00      0.00;
   5188      0.0       2.77      0.0       0.0       1.013     100       1         13.92     0.0       0.00      0.00      0.00      0.00      0.00      0.00      0.00      0.00      0.00      0.00      0.00;
   5188      0.0       2.77      0.0       0.0       1.013     100       1         12.48     0.0       0.00      0.00      0.00      0.00      0.00      0.00      0.00      0.00      0.00      0.00      0.00;
   5188      0.0       2.77      0.0       0.0       1.013     100       1         13.92     0.0       0.00      0.00      0.00      0.00      0.00      0.00      0.00      0.00      0.00      0.00      0.00;
   5219      0.0       0.0       0.0       0.0       0.989     100       1         58.27     0.0       0.00      0.00      0.00      0.00      0.00      0.00      0.00      0.00      0.00      0.00      0.00;
...